ES11_EXP_VOLTAGES.CSV
Bus, BasekV, Node1, Magnitude1, Angle1, pu1, Node2, Magnitude2, Angle2, pu2, Node3, Magnitude3, Angle3, pu3
"ES_ALES11", 13.8, 1,    7958.79,   -0.1,   0.99891, 2,    7958.79, -120.1,   0.99891, 3,    7958.79,  119.9,   0.99891
"SES_ES11_9115_BSB099", 13.8, 1,    7580.46,   -0.3,   0.95143, 2,    7580.46, -120.3,   0.95143, 3,    7580.46,  119.7,   0.95143
"SES_ES11_9116_BSB099", 13.8, 1,    7584.67,   -0.3,   0.95196, 2,    7584.67, -120.3,   0.95196, 3,    7584.67,  119.7,   0.95196
"SES_ES11_9001_BSB114", 13.8, 1,       7459,   -0.4,   0.93619, 2,       7459, -120.4,   0.93619, 3,       7459,  119.6,   0.93619
"SES_ES11_9012_BSB114", 13.8, 1,    7458.97,   -0.4,   0.93618, 2,    7458.97, -120.4,   0.93618, 3,    7458.97,  119.6,   0.93618
"SES_ES11_9117_BSB099", 13.8, 1,    7586.25,   -0.3,   0.95216, 2,    7586.25, -120.3,   0.95216, 3,    7586.25,  119.7,   0.95216
"SES_ES11_9118_BSB099", 13.8, 1,    7586.25,   -0.3,   0.95216, 2,    7586.25, -120.3,   0.95216, 3,    7586.25,  119.7,   0.95216
"SES_ES11_9130_BSB115A", 13.8, 1,    7238.41,   -0.6,    0.9085, 2,    7238.41, -120.6,    0.9085, 3,    7238.41,  119.4,    0.9085
"SES_ES11_9131_BSB115A", 13.8, 1,    7238.44,   -0.6,    0.9085, 2,    7238.44, -120.6,    0.9085, 3,    7238.44,  119.4,    0.9085
"SES_ES11_9137_BSB117", 13.8, 1,    7197.71,   -0.6,   0.90339, 2,    7197.71, -120.6,   0.90339, 3,    7197.72,  119.4,   0.90339
"SES_ES11_9138_BSB117", 13.8, 1,    7198.29,   -0.6,   0.90346, 2,    7198.28, -120.6,   0.90346, 3,    7198.29,  119.4,   0.90346
"SES_ES11_9068_BSB117", 13.8, 1,     7217.9,   -0.6,   0.90593, 2,     7217.9, -120.6,   0.90592, 3,     7217.9,  119.4,   0.90593
"SES_ES11_9069_BSB117", 13.8, 1,    7218.73,   -0.6,   0.90603, 2,    7218.73, -120.6,   0.90603, 3,    7218.73,  119.4,   0.90603
"SES_ES11_9057_BSB117", 13.8, 1,    7216.68,   -0.6,   0.90577, 2,    7216.68, -120.6,   0.90577, 3,    7216.68,  119.4,   0.90577
"SES_ES11_9067_BSB117", 13.8, 1,    7217.08,   -0.6,   0.90582, 2,    7217.08, -120.6,   0.90582, 3,    7217.08,  119.4,   0.90582
"SES_ES11_9082_BSB116", 13.8, 1,    7395.27,   -0.5,   0.92819, 2,    7395.27, -120.5,   0.92819, 3,    7395.27,  119.5,   0.92819
"SES_ES11_9083_BSB116", 13.8, 1,    7395.07,   -0.5,   0.92816, 2,    7395.07, -120.5,   0.92816, 3,    7395.07,  119.5,   0.92816
"SES_ES11_9138_BSB118", 13.8, 1,    7203.33,   -0.6,    0.9041, 2,    7203.33, -120.6,    0.9041, 3,    7203.33,  119.4,    0.9041
"SES_ES11_9139_BSB118", 13.8, 1,    7203.18,   -0.6,   0.90408, 2,    7203.18, -120.6,   0.90408, 3,    7203.18,  119.4,   0.90408
"SES_ES11_9127_BSB118", 13.8, 1,    7201.55,   -0.6,   0.90387, 2,    7201.55, -120.6,   0.90387, 3,    7201.55,  119.4,   0.90387
"SES_ES11_9001_BSB117", 13.8, 1,    7201.08,   -0.6,   0.90381, 2,    7201.07, -120.6,   0.90381, 3,    7201.08,  119.4,   0.90381
"SES_ES11_9054_BSB117", 13.8, 1,    7214.43,   -0.6,   0.90549, 2,    7214.42, -120.6,   0.90549, 3,    7214.43,  119.4,   0.90549
"SES_ES11_9055_BSB117", 13.8, 1,    7215.69,   -0.6,   0.90565, 2,    7215.69, -120.6,   0.90565, 3,    7215.69,  119.4,   0.90565
"SES_ES11_9060_BSB117", 13.8, 1,    7215.96,   -0.6,   0.90568, 2,    7215.96, -120.6,   0.90568, 3,    7215.96,  119.4,   0.90568
"SES_ES11_9061_BSB117", 13.8, 1,    7215.81,   -0.6,   0.90566, 2,    7215.81, -120.6,   0.90566, 3,    7215.81,  119.4,   0.90566
"SES_ES11_9062_BSB117", 13.8, 1,    7215.96,   -0.6,   0.90568, 2,    7215.96, -120.6,   0.90568, 3,    7215.96,  119.4,   0.90568
"SES_ES11_9064_BSB117", 13.8, 1,    7215.96,   -0.6,   0.90568, 2,    7215.96, -120.6,   0.90568, 3,    7215.96,  119.4,   0.90568
"SES_ES11_9065_BSB117", 13.8, 1,    7215.96,   -0.6,   0.90568, 2,    7215.96, -120.6,   0.90568, 3,    7215.96,  119.4,   0.90568
"SES_ES11_9009_BSB116", 13.8, 1,    7215.96,   -0.6,   0.90568, 2,    7215.96, -120.6,   0.90568, 3,    7215.96,  119.4,   0.90568
"SES_ES11_9052_BSB117", 13.8, 1,    7213.22,   -0.6,   0.90534, 2,    7213.22, -120.6,   0.90534, 3,    7213.22,  119.4,   0.90534
"SES_ES11_9050_BSB117", 13.8, 1,    7210.54,   -0.6,     0.905, 2,    7210.54, -120.6,     0.905, 3,    7210.54,  119.4,     0.905
"SES_ES11_9051_BSB117", 13.8, 1,    7211.82,   -0.6,   0.90516, 2,    7211.82, -120.6,   0.90516, 3,    7211.82,  119.4,   0.90516
"SES_ES11_9049_BSB117", 13.8, 1,    7209.15,   -0.6,   0.90483, 2,    7209.14, -120.6,   0.90483, 3,    7209.15,  119.4,   0.90483
"SES_ES11_9047_BSB117", 13.8, 1,    7206.58,   -0.6,    0.9045, 2,    7206.58, -120.6,    0.9045, 3,    7206.58,  119.4,    0.9045
"SES_ES11_9048_BSB117", 13.8, 1,    7207.92,   -0.6,   0.90467, 2,    7207.91, -120.6,   0.90467, 3,    7207.92,  119.4,   0.90467
"SES_ES11_9045_BSB117", 13.8, 1,    7204.03,   -0.6,   0.90419, 2,    7204.03, -120.6,   0.90418, 3,    7204.04,  119.4,   0.90419
"SES_ES11_9046_BSB117", 13.8, 1,    7205.27,   -0.6,   0.90434, 2,    7205.26, -120.6,   0.90434, 3,    7205.27,  119.4,   0.90434
"SES_ES11_9041_BSB117", 13.8, 1,    7202.45,   -0.6,   0.90399, 2,    7202.44, -120.6,   0.90399, 3,    7202.45,  119.4,   0.90399
"SES_ES11_9042_BSB117", 13.8, 1,    7202.45,   -0.6,   0.90399, 2,    7202.44, -120.6,   0.90399, 3,    7202.45,  119.4,   0.90399
"SES_ES11_9145_BSB117", 13.8, 1,    7201.83,   -0.6,   0.90391, 2,    7201.83, -120.6,   0.90391, 3,    7201.83,  119.4,   0.90391
"SES_ES11_9245_BSBRJ001B_ATV", 13.8, 1,    7464.91,   -0.4,   0.93693, 2,     7464.9, -120.4,   0.93693, 3,    7464.91,  119.6,   0.93693
"SES_ES11_9246_BSBRJ001B_ATV", 13.8, 1,    7464.91,   -0.4,   0.93693, 2,     7464.9, -120.4,   0.93693, 3,    7464.91,  119.6,   0.93693
"SES_ES11_9115_BSB114", 13.8, 1,    7458.74,   -0.4,   0.93615, 2,    7458.74, -120.4,   0.93615, 3,    7458.74,  119.6,   0.93615
"SES_ES11_9120_BSB114", 13.8, 1,    7458.77,   -0.4,   0.93616, 2,    7458.77, -120.4,   0.93616, 3,    7458.77,  119.6,   0.93616
"SES_ES11_9001_BSB115", 13.8, 1,    7460.19,   -0.4,   0.93633, 2,    7460.18, -120.4,   0.93633, 3,    7460.19,  119.6,   0.93633
"SES_ES11_9003_BSB115", 13.8, 1,    7460.35,   -0.4,   0.93636, 2,    7460.35, -120.4,   0.93636, 3,    7460.35,  119.6,   0.93636
"SES_ES11_9010_BSB114", 13.8, 1,     7459.8,   -0.4,   0.93629, 2,     7459.8, -120.4,   0.93629, 3,     7459.8,  119.6,   0.93629
"SES_ES11_9011_BSB114", 13.8, 1,    7459.99,   -0.4,   0.93631, 2,    7459.99, -120.4,   0.93631, 3,    7459.99,  119.6,   0.93631
"SES_ES11_9008_BSB114", 13.8, 1,    7459.34,   -0.4,   0.93623, 2,    7459.33, -120.4,   0.93623, 3,    7459.34,  119.6,   0.93623
"SES_ES11_9009_BSB114", 13.8, 1,    7459.56,   -0.4,   0.93626, 2,    7459.56, -120.4,   0.93626, 3,    7459.56,  119.6,   0.93626
"SES_ES11_9007_BSB114", 13.8, 1,    7459.28,   -0.4,   0.93622, 2,    7459.27, -120.4,   0.93622, 3,    7459.28,  119.6,   0.93622
"SES_ES11_9124_BSB116", 13.8, 1,    7484.52,   -0.4,   0.93939, 2,    7484.52, -120.4,   0.93939, 3,    7484.52,  119.6,   0.93939
"SES_ES11_9126_BSB116", 13.8, 1,    7483.76,   -0.4,   0.93929, 2,    7483.76, -120.4,   0.93929, 3,    7483.76,  119.6,   0.93929
"SES_ES11_9144_BSB117", 13.8, 1,    7201.28,   -0.6,   0.90384, 2,    7201.28, -120.6,   0.90384, 3,    7201.28,  119.4,   0.90384
"SES_ES11_9135_BSB117", 13.8, 1,    7196.69,   -0.6,   0.90326, 2,    7196.69, -120.6,   0.90326, 3,    7196.69,  119.4,   0.90326
"SES_ES11_9136_BSB117", 13.8, 1,    7197.19,   -0.6,   0.90333, 2,    7197.19, -120.6,   0.90333, 3,    7197.19,  119.4,   0.90333
"SES_ES11_9070_BSB117A", 13.8, 1,    7202.82,   -0.6,   0.90403, 2,    7202.82, -120.6,   0.90403, 3,    7202.82,  119.4,   0.90403
"SES_ES11_9071_BSB117A_S", 13.8, 1,    7202.05,   -0.6,   0.90394, 2,    7202.05, -120.6,   0.90394, 3,    7202.05,  119.4,   0.90394
"SES_ES11_9073_BSB117A", 13.8, 1,    7200.68,   -0.6,   0.90376, 2,    7200.68, -120.6,   0.90376, 3,    7200.69,  119.4,   0.90376
"SES_ES11_9074_BSB117A", 13.8, 1,    7199.98,   -0.6,   0.90368, 2,    7199.98, -120.6,   0.90368, 3,    7199.98,  119.4,   0.90368
"SES_ES11_9082_BSB117A", 13.8, 1,    7197.78,   -0.6,    0.9034, 2,    7197.77, -120.6,    0.9034, 3,    7197.78,  119.4,    0.9034
"SES_ES11_9084_BSB117A", 13.8, 1,    7196.96,   -0.6,    0.9033, 2,    7196.96, -120.6,    0.9033, 3,    7196.96,  119.4,    0.9033
"SES_ES11_9073_BSB116", 13.8, 1,    7345.51,   -0.5,   0.92194, 2,     7345.5, -120.5,   0.92194, 3,    7345.51,  119.5,   0.92194
"SES_ES11_9074_BSB116", 13.8, 1,     7350.9,   -0.5,   0.92262, 2,     7350.9, -120.5,   0.92262, 3,     7350.9,  119.5,   0.92262
"SES_ES11_9029_BSB117A", 13.8, 1,    7223.44,   -0.6,   0.90662, 2,    7223.43, -120.6,   0.90662, 3,    7223.44,  119.4,   0.90662
"SES_ES11_9030_BSB117A", 13.8, 1,    7223.48,   -0.6,   0.90663, 2,    7223.48, -120.6,   0.90663, 3,    7223.48,  119.4,   0.90663
"SES_ES11_9119_BSB118", 13.8, 1,    7205.56,   -0.6,   0.90438, 2,    7205.56, -120.6,   0.90438, 3,    7205.56,  119.4,   0.90438
"SES_ES11_9128_BSB118", 13.8, 1,    7205.28,   -0.6,   0.90434, 2,    7205.28, -120.6,   0.90434, 3,    7205.28,  119.4,   0.90434
"SES_ES11_9070_BSB117A_S", 13.8, 1,    7202.82,   -0.6,   0.90403, 2,    7202.82, -120.6,   0.90403, 3,    7202.82,  119.4,   0.90403
"SES_ES11_9043_BSB117", 13.8, 1,    7203.43,   -0.6,   0.90411, 2,    7203.43, -120.6,   0.90411, 3,    7203.43,  119.4,   0.90411
"SES_ES11_9128_BSB116", 13.8, 1,    7482.66,   -0.4,   0.93916, 2,    7482.66, -120.4,   0.93916, 3,    7482.66,  119.6,   0.93916
"SES_ES11_9129_BSB116", 13.8, 1,    7482.15,   -0.4,   0.93909, 2,    7482.15, -120.4,   0.93909, 3,    7482.15,  119.6,   0.93909
"SES_ES11_9087_BSB117A", 13.8, 1,    7196.41,   -0.6,   0.90323, 2,    7196.41, -120.6,   0.90323, 3,    7196.41,  119.4,   0.90323
"SES_ES11_9085_BSB116", 13.8, 1,    7399.38,   -0.5,    0.9287, 2,    7399.38, -120.5,    0.9287, 3,    7399.38,  119.5,    0.9287
"SES_ES11_9086_BSB116", 13.8, 1,    7405.03,   -0.5,   0.92941, 2,    7405.03, -120.5,   0.92941, 3,    7405.03,  119.5,   0.92941
"SES_ES11_9063_BSB117A", 13.8, 1,    7203.88,   -0.6,   0.90417, 2,    7203.88, -120.6,   0.90417, 3,    7203.88,  119.4,   0.90417
"SES_ES11_9064_BSB117A", 13.8, 1,    7203.73,   -0.6,   0.90415, 2,    7203.72, -120.6,   0.90415, 3,    7203.73,  119.4,   0.90415
"SES_ES11_9002_BSB117", 13.8, 1,    7200.57,   -0.6,   0.90375, 2,    7200.57, -120.6,   0.90375, 3,    7200.57,  119.4,   0.90375
"SES_ES11_9003_BSB117", 13.8, 1,    7200.07,   -0.6,   0.90369, 2,    7200.07, -120.6,   0.90369, 3,    7200.07,  119.4,   0.90369
"SES_ES11_9132_BSB117", 13.8, 1,    7195.37,   -0.6,    0.9031, 2,    7195.36, -120.6,    0.9031, 3,    7195.37,  119.4,    0.9031
"SES_ES11_9133_BSB117", 13.8, 1,    7195.63,   -0.6,   0.90313, 2,    7195.63, -120.6,   0.90313, 3,    7195.64,  119.4,   0.90313
"SES_ES11_9080_BSB117A", 13.8, 1,    7198.45,   -0.6,   0.90348, 2,    7198.45, -120.6,   0.90348, 3,    7198.46,  119.4,   0.90348
"SES_ES11_9094_BSB117A", 13.8, 1,    7195.12,   -0.6,   0.90307, 2,    7195.11, -120.6,   0.90307, 3,    7195.12,  119.4,   0.90307
"SES_ES11_9095_BSB117A_S", 13.8, 1,    7194.55,   -0.6,     0.903, 2,    7194.55, -120.6,   0.90299, 3,    7194.56,  119.4,     0.903
"SES_ES11_9095_BSB117A", 13.8, 1,    7194.55,   -0.6,     0.903, 2,    7194.55, -120.6,   0.90299, 3,    7194.56,  119.4,     0.903
"SES_ES11_9098_BSB117A", 13.8, 1,    7194.01,   -0.6,   0.90293, 2,       7194, -120.6,   0.90293, 3,    7194.01,  119.4,   0.90293
"SES_ES11_9068_BSB117A", 13.8, 1,    7203.09,   -0.6,   0.90407, 2,    7203.09, -120.6,   0.90407, 3,    7203.09,  119.4,   0.90407
"SES_ES11_9069_BSB117A", 13.8, 1,     7202.9,   -0.6,   0.90404, 2,     7202.9, -120.6,   0.90404, 3,    7202.91,  119.4,   0.90404
"SES_ES11_9066_BSB117A", 13.8, 1,     7203.4,   -0.6,   0.90411, 2,     7203.4, -120.6,   0.90411, 3,    7203.41,  119.4,   0.90411
"SES_ES11_9067_BSB117A", 13.8, 1,    7203.25,   -0.6,   0.90409, 2,    7203.25, -120.6,   0.90409, 3,    7203.25,  119.4,   0.90409
"SES_ES11_9065_BSB117A", 13.8, 1,    7203.56,   -0.6,   0.90413, 2,    7203.56, -120.6,   0.90413, 3,    7203.56,  119.4,   0.90413
"SES_ES11_9062_BSB117A", 13.8, 1,    7204.09,   -0.6,   0.90419, 2,    7204.09, -120.6,   0.90419, 3,    7204.09,  119.4,   0.90419
"SES_ES11_9060_BSB117A", 13.8, 1,     7204.3,   -0.6,   0.90422, 2,     7204.3, -120.6,   0.90422, 3,     7204.3,  119.4,   0.90422
"SES_ES11_9062_BSB117A_S", 13.8, 1,    7204.09,   -0.6,   0.90419, 2,    7204.09, -120.6,   0.90419, 3,    7204.09,  119.4,   0.90419
"SES_ES11_9058_BSB117A", 13.8, 1,    7205.19,   -0.6,   0.90433, 2,    7205.19, -120.6,   0.90433, 3,    7205.19,  119.4,   0.90433
"SES_ES11_9059_BSB117A", 13.8, 1,    7204.78,   -0.6,   0.90428, 2,    7204.78, -120.6,   0.90428, 3,    7204.78,  119.4,   0.90428
"SES_ES11_9056_BSB117A", 13.8, 1,    7205.52,   -0.6,   0.90437, 2,    7205.51, -120.6,   0.90437, 3,    7205.52,  119.4,   0.90437
"SES_ES11_9046_BSB117A", 13.8, 1,    7214.07,   -0.6,   0.90544, 2,    7214.06, -120.6,   0.90544, 3,    7214.07,  119.4,   0.90544
"SES_ES11_9047_BSB117A", 13.8, 1,    7211.93,   -0.6,   0.90518, 2,    7211.93, -120.6,   0.90518, 3,    7211.93,  119.4,   0.90518
"SES_ES11_9048_BSB117A", 13.8, 1,    7209.59,   -0.6,   0.90488, 2,    7209.59, -120.6,   0.90488, 3,    7209.59,  119.4,   0.90488
"SES_ES11_9125_BSB116", 13.8, 1,    7484.52,   -0.4,   0.93939, 2,    7484.52, -120.4,   0.93939, 3,    7484.52,  119.6,   0.93939
"SES_ES11_9225_BSBRJ001B_ATV", 13.8, 1,    7481.57,   -0.4,   0.93902, 2,    7481.57, -120.4,   0.93902, 3,    7481.57,  119.6,   0.93902
"SES_ES11_9226_BSBRJ001B_ATV", 13.8, 1,    7481.03,   -0.4,   0.93895, 2,    7481.03, -120.4,   0.93895, 3,    7481.03,  119.6,   0.93895
"SES_ES11_9227_BSBRJ001B_ATV", 13.8, 1,    7480.51,   -0.4,   0.93889, 2,    7480.51, -120.4,   0.93889, 3,    7480.51,  119.6,   0.93889
"SES_ES11_9230_BSBRJ001B_ATV", 13.8, 1,    7478.93,   -0.4,   0.93869, 2,    7478.92, -120.4,   0.93869, 3,    7478.93,  119.6,   0.93869
"SES_ES11_9231_BSBRJ001B_ATV", 13.8, 1,    7478.42,   -0.4,   0.93862, 2,    7478.42, -120.4,   0.93862, 3,    7478.42,  119.6,   0.93862
"SES_ES11_9232_BSBRJ001B_ATV", 13.8, 1,    7477.85,   -0.4,   0.93855, 2,    7477.85, -120.4,   0.93855, 3,    7477.85,  119.6,   0.93855
"SES_ES11_9233_BSBRJ001B_ATV", 13.8, 1,    7477.37,   -0.4,   0.93849, 2,    7477.37, -120.4,   0.93849, 3,    7477.37,  119.6,   0.93849
"SES_ES11_9234_BSBRJ001B_ATV", 13.8, 1,    7476.85,   -0.4,   0.93843, 2,    7476.85, -120.4,   0.93843, 3,    7476.85,  119.6,   0.93843
"SES_ES11_9235_BSBRJ001B_ATV", 13.8, 1,    7476.32,   -0.4,   0.93836, 2,    7476.32, -120.4,   0.93836, 3,    7476.32,  119.6,   0.93836
"SES_ES11_9236_BSBRJ001B_ATV", 13.8, 1,    7475.79,   -0.4,   0.93829, 2,    7475.79, -120.4,   0.93829, 3,    7475.79,  119.6,   0.93829
"SES_ES11_9237_BSBRJ001B_ATV", 13.8, 1,    7475.24,   -0.4,   0.93822, 2,    7475.24, -120.4,   0.93822, 3,    7475.24,  119.6,   0.93822
"SES_ES11_9240_BSBRJ001B_ATV", 13.8, 1,     7474.2,   -0.4,   0.93809, 2,     7474.2, -120.4,   0.93809, 3,     7474.2,  119.6,   0.93809
"SES_ES11_9241_BSBRJ001B_ATV", 13.8, 1,    7473.67,   -0.4,   0.93803, 2,    7473.67, -120.4,   0.93803, 3,    7473.67,  119.6,   0.93803
"SES_ES11_9242_BSBRJ001B_ATV", 13.8, 1,    7473.15,   -0.4,   0.93796, 2,    7473.15, -120.4,   0.93796, 3,    7473.15,  119.6,   0.93796
"SES_ES11_9243_BSBRJ001B_ATV", 13.8, 1,    7472.63,   -0.4,    0.9379, 2,    7472.63, -120.4,    0.9379, 3,    7472.63,  119.6,    0.9379
"SES_ES11_9005_BSB115A", 13.8, 1,    7472.12,   -0.4,   0.93783, 2,    7472.12, -120.4,   0.93783, 3,    7472.12,  119.6,   0.93783
"SES_ES11_9006_BSB115A", 13.8, 1,    7471.89,   -0.4,    0.9378, 2,    7471.89, -120.4,    0.9378, 3,    7471.89,  119.6,    0.9378
"SES_ES11_9007_BSB115A", 13.8, 1,    7471.61,   -0.4,   0.93777, 2,    7471.61, -120.4,   0.93777, 3,    7471.61,  119.6,   0.93777
"SES_ES11_9008_BSB115A", 13.8, 1,    7471.05,   -0.4,    0.9377, 2,    7471.05, -120.4,    0.9377, 3,    7471.05,  119.6,    0.9377
"SES_ES11_9009_BSB115A", 13.8, 1,    7470.05,   -0.4,   0.93757, 2,    7470.04, -120.4,   0.93757, 3,    7470.04,  119.6,   0.93757
"SES_ES11_9010_BSB115A", 13.8, 1,    7469.56,   -0.4,   0.93751, 2,    7469.56, -120.4,   0.93751, 3,    7469.56,  119.6,   0.93751
"SES_ES11_9011_BSB115A", 13.8, 1,    7469.01,   -0.4,   0.93744, 2,    7469.01, -120.4,   0.93744, 3,    7469.01,  119.6,   0.93744
"SES_ES11_9055_BSB116", 13.8, 1,    7271.17,   -0.6,   0.91261, 2,    7271.17, -120.6,   0.91261, 3,    7271.17,  119.4,   0.91261
"SES_ES11_9056_BSB116", 13.8, 1,    7269.34,   -0.6,   0.91238, 2,    7269.34, -120.6,   0.91238, 3,    7269.34,  119.4,   0.91238
"SES_ES11_9066_BSB116", 13.8, 1,    7332.96,   -0.5,   0.92037, 2,    7332.96, -120.5,   0.92037, 3,    7332.96,  119.5,   0.92037
"SES_ES11_9067_BSB116", 13.8, 1,    7337.44,   -0.5,   0.92093, 2,    7337.44, -120.5,   0.92093, 3,    7337.44,  119.5,   0.92093
"SES_ES11_9121_BSB099", 13.8, 1,    7584.67,   -0.3,   0.95196, 2,    7584.67, -120.3,   0.95196, 3,    7584.67,  119.7,   0.95196
"SES_ES11_9089_BSB099_S", 13.8, 1,    7580.15,   -0.3,   0.95139, 2,    7580.15, -120.3,   0.95139, 3,    7580.15,  119.7,   0.95139
"SES_ES11_9089_BSB099", 13.8, 1,    7580.15,   -0.3,   0.95139, 2,    7580.15, -120.3,   0.95139, 3,    7580.15,  119.7,   0.95139
"SES_ES11_9090_BSB099", 13.8, 1,    7578.93,   -0.3,   0.95124, 2,    7578.93, -120.3,   0.95124, 3,    7578.93,  119.7,   0.95124
"SES_ES11_9094_BSB099", 13.8, 1,    7577.29,   -0.3,   0.95103, 2,    7577.29, -120.3,   0.95103, 3,    7577.29,  119.7,   0.95103
"SES_ES11_9095_BSB099", 13.8, 1,    7577.21,   -0.3,   0.95102, 2,     7577.2, -120.3,   0.95102, 3,    7577.21,  119.7,   0.95102
"SES_ES11_9106_BSB099", 13.8, 1,    7577.21,   -0.3,   0.95102, 2,     7577.2, -120.3,   0.95102, 3,    7577.21,  119.7,   0.95102
"SES_ES11_9096_BSB099", 13.8, 1,    7577.17,   -0.3,   0.95102, 2,    7577.17, -120.3,   0.95102, 3,    7577.17,  119.7,   0.95102
"SES_ES11_9097_BSB099", 13.8, 1,    7577.11,   -0.3,   0.95101, 2,    7577.11, -120.3,   0.95101, 3,    7577.11,  119.7,   0.95101
"SES_ES11_9098_BSB099", 13.8, 1,    7577.11,   -0.3,   0.95101, 2,    7577.11, -120.3,   0.95101, 3,    7577.11,  119.7,   0.95101
"SES_ES11_9099_BSB099", 13.8, 1,    7577.11,   -0.3,   0.95101, 2,    7577.11, -120.3,   0.95101, 3,    7577.11,  119.7,   0.95101
"SES_ES11_9100_BSB099", 13.8, 1,    7577.11,   -0.3,   0.95101, 2,    7577.11, -120.3,   0.95101, 3,    7577.11,  119.7,   0.95101
"SES_ES11_9087_BSB099", 13.8, 1,    7568.17,   -0.3,   0.94989, 2,    7568.17, -120.3,   0.94989, 3,    7568.17,  119.7,   0.94989
"SES_ES11_9088_BSB099", 13.8, 1,    7572.87,   -0.3,   0.95048, 2,    7572.87, -120.3,   0.95048, 3,    7572.87,  119.7,   0.95048
"SES_ES11_9148_BSB116", 13.8, 1,    7558.39,   -0.3,   0.94866, 2,    7558.39, -120.3,   0.94866, 3,    7558.39,  119.7,   0.94866
"SES_ES11_9086_BSB099", 13.8, 1,    7563.65,   -0.3,   0.94932, 2,    7563.65, -120.3,   0.94932, 3,    7563.65,  119.7,   0.94932
"SES_ES11_9146_BSB116", 13.8, 1,    7547.41,   -0.4,   0.94728, 2,    7547.41, -120.4,   0.94728, 3,    7547.41,  119.6,   0.94728
"SES_ES11_9147_BSB116", 13.8, 1,    7552.93,   -0.4,   0.94798, 2,    7552.93, -120.4,   0.94798, 3,    7552.93,  119.6,   0.94798
"SES_ES11_9135_BSB116", 13.8, 1,    7506.18,   -0.4,   0.94211, 2,    7506.18, -120.4,   0.94211, 3,    7506.18,  119.6,   0.94211
"SES_ES11_9136_BSB116", 13.8, 1,    7510.81,   -0.4,   0.94269, 2,    7510.81, -120.4,   0.94269, 3,    7510.81,  119.6,   0.94269
"SES_ES11_9122_BSB116", 13.8, 1,    7486.23,   -0.4,    0.9396, 2,    7486.23, -120.4,    0.9396, 3,    7486.23,  119.6,    0.9396
"SES_ES11_9132_BSB116", 13.8, 1,    7491.99,   -0.4,   0.94033, 2,    7491.99, -120.4,   0.94033, 3,    7491.99,  119.6,   0.94033
"SES_ES11_9095_BSB116", 13.8, 1,    7444.19,   -0.4,   0.93433, 2,    7444.19, -120.4,   0.93433, 3,    7444.19,  119.6,   0.93433
"SES_ES11_9096_BSB116", 13.8, 1,    7449.49,   -0.4,   0.93499, 2,    7449.49, -120.4,   0.93499, 3,    7449.49,  119.6,   0.93499
"SES_ES11_9089_BSB116", 13.8, 1,    7417.39,   -0.5,   0.93096, 2,    7417.39, -120.5,   0.93096, 3,    7417.39,  119.5,   0.93096
"SES_ES11_9090_BSB116", 13.8, 1,    7421.85,   -0.5,   0.93152, 2,    7421.85, -120.5,   0.93152, 3,    7421.85,  119.5,   0.93152
"SES_ES11_9084_BSB116", 13.8, 1,    7394.92,   -0.5,   0.92814, 2,    7394.92, -120.5,   0.92814, 3,    7394.92,  119.5,   0.92814
"SES_ES11_9075_BSB116", 13.8, 1,    7357.61,   -0.5,   0.92346, 2,    7357.61, -120.5,   0.92346, 3,    7357.62,  119.5,   0.92346
"SES_ES11_9076_BSB116", 13.8, 1,    7364.03,   -0.5,   0.92427, 2,    7364.03, -120.5,   0.92427, 3,    7364.03,  119.5,   0.92427
"SES_ES11_9065_BSB116", 13.8, 1,    7328.38,   -0.5,   0.91979, 2,    7328.38, -120.5,   0.91979, 3,    7328.38,  119.5,   0.91979
"SES_ES11_9064_BSB116", 13.8, 1,    7324.26,   -0.5,   0.91928, 2,    7324.26, -120.5,   0.91927, 3,    7324.26,  119.5,   0.91928
"SES_ES11_9071_BSB117A", 13.8, 1,    7202.05,   -0.6,   0.90394, 2,    7202.05, -120.6,   0.90394, 3,    7202.05,  119.4,   0.90394
"SES_ES11_9072_BSB117A", 13.8, 1,    7201.34,   -0.6,   0.90385, 2,    7201.34, -120.6,   0.90385, 3,    7201.34,  119.4,   0.90385
"SES_ES11_9103_BSB117A", 13.8, 1,    7193.69,   -0.6,   0.90289, 2,    7193.68, -120.6,   0.90289, 3,    7193.69,  119.4,   0.90289
"SES_ES11_9106_BSB117A", 13.8, 1,    7193.38,   -0.6,   0.90285, 2,    7193.38, -120.6,   0.90285, 3,    7193.38,  119.4,   0.90285
"SES_ES11_9107_BSB117A", 13.8, 1,    7193.31,   -0.6,   0.90284, 2,    7193.31, -120.6,   0.90284, 3,    7193.31,  119.4,   0.90284
"SES_ES11_9002_BSB115A", 13.8, 1,    7465.88,   -0.4,   0.93705, 2,    7465.88, -120.4,   0.93705, 3,    7465.88,  119.6,   0.93705
"SES_ES11_9003_BSB115A", 13.8, 1,    7466.38,   -0.4,   0.93711, 2,    7466.38, -120.4,   0.93711, 3,    7466.38,  119.6,   0.93711
"SES_ES11_9019_BSB117A", 13.8, 1,    7235.18,   -0.6,   0.90809, 2,    7235.18, -120.6,   0.90809, 3,    7235.18,  119.4,   0.90809
"SES_ES11_9016_BSB117A", 13.8, 1,    7237.12,   -0.6,   0.90834, 2,    7237.12, -120.6,   0.90834, 3,    7237.12,  119.4,   0.90834
"SES_ES11_9142_BSB117", 13.8, 1,    7200.21,   -0.6,    0.9037, 2,    7200.21, -120.6,    0.9037, 3,    7200.21,  119.4,    0.9037
"SES_ES11_9143_BSB117", 13.8, 1,    7200.73,   -0.6,   0.90377, 2,    7200.73, -120.6,   0.90377, 3,    7200.73,  119.4,   0.90377
"SES_ES11_9134_BSB117", 13.8, 1,    7196.17,   -0.6,    0.9032, 2,    7196.17, -120.6,    0.9032, 3,    7196.17,  119.4,    0.9032
"SES_ES11_9305_BSB118", 13.8, 1,    7238.32,   -0.6,   0.90849, 2,    7238.31, -120.6,   0.90849, 3,    7238.32,  119.4,   0.90849
"SES_ES11_9306_BSB118", 13.8, 1,    7238.32,   -0.6,   0.90849, 2,    7238.31, -120.6,   0.90849, 3,    7238.32,  119.4,   0.90849
"SES_ES11_9057_BSB117A", 13.8, 1,    7205.52,   -0.6,   0.90437, 2,    7205.51, -120.6,   0.90437, 3,    7205.52,  119.4,   0.90437
"SES_ES11_9013_BSB117A", 13.8, 1,    7238.76,   -0.6,   0.90854, 2,    7238.76, -120.6,   0.90854, 3,    7238.76,  119.4,   0.90854
"SES_ES11_9015_BSB117A", 13.8, 1,    7238.81,   -0.6,   0.90855, 2,    7238.81, -120.6,   0.90855, 3,    7238.81,  119.4,   0.90855
"SES_ES11_9012_BSB117A_S", 13.8, 1,    7238.72,   -0.6,   0.90854, 2,    7238.72, -120.6,   0.90854, 3,    7238.72,  119.4,   0.90854
"SES_ES11_9143_BSB115A", 13.8, 1,     7238.6,   -0.6,   0.90852, 2,    7238.59, -120.6,   0.90852, 3,     7238.6,  119.4,   0.90852
"SES_ES11_9145_BSB115A", 13.8, 1,    7238.63,   -0.6,   0.90853, 2,    7238.62, -120.6,   0.90853, 3,    7238.63,  119.4,   0.90853
"SES_ES11_9139_BSB115A_S", 13.8, 1,    7238.53,   -0.6,   0.90852, 2,    7238.53, -120.6,   0.90851, 3,    7238.54,  119.4,   0.90852
"SES_ES11_9141_BSB115A", 13.8, 1,    7238.57,   -0.6,   0.90852, 2,    7238.56, -120.6,   0.90852, 3,    7238.57,  119.4,   0.90852
"SES_ES11_9136_BSB115A", 13.8, 1,    7238.51,   -0.6,   0.90851, 2,     7238.5, -120.6,   0.90851, 3,    7238.51,  119.4,   0.90851
"SES_ES11_9137_BSB115A", 13.8, 1,    7238.52,   -0.6,   0.90851, 2,    7238.52, -120.6,   0.90851, 3,    7238.52,  119.4,   0.90851
"SES_ES11_9126_BSB115A", 13.8, 1,    7238.32,   -0.6,   0.90849, 2,    7238.32, -120.6,   0.90849, 3,    7238.32,  119.4,   0.90849
"SES_ES11_9127_BSB115A", 13.8, 1,    7238.32,   -0.6,   0.90849, 2,    7238.32, -120.6,   0.90849, 3,    7238.32,  119.4,   0.90849
"SES_ES11_9072_BSB118", 13.8, 1,    7238.32,   -0.6,   0.90849, 2,    7238.32, -120.6,   0.90849, 3,    7238.32,  119.4,   0.90849
"SES_ES11_9073_BSB118", 13.8, 1,    7238.32,   -0.6,   0.90849, 2,    7238.32, -120.6,   0.90849, 3,    7238.32,  119.4,   0.90849
"SES_ES11_9074_BSB118", 13.8, 1,    7238.32,   -0.6,   0.90849, 2,    7238.32, -120.6,   0.90849, 3,    7238.32,  119.4,   0.90849
"SES_ES11_9075_BSB118", 13.8, 1,    7238.32,   -0.6,   0.90849, 2,    7238.32, -120.6,   0.90849, 3,    7238.32,  119.4,   0.90849
"SES_ES11_9076_BSB118", 13.8, 1,    7238.32,   -0.6,   0.90849, 2,    7238.32, -120.6,   0.90849, 3,    7238.32,  119.4,   0.90849
"SES_ES11_9077_BSB118", 13.8, 1,    7238.32,   -0.6,   0.90849, 2,    7238.32, -120.6,   0.90849, 3,    7238.32,  119.4,   0.90849
"SES_ES11_9078_BSB118", 13.8, 1,    7238.32,   -0.6,   0.90849, 2,    7238.32, -120.6,   0.90849, 3,    7238.32,  119.4,   0.90849
"SES_ES11_9079_BSB118", 13.8, 1,    7238.32,   -0.6,   0.90849, 2,    7238.32, -120.6,   0.90849, 3,    7238.32,  119.4,   0.90849
"SES_ES11_9080_BSB118", 13.8, 1,    7238.32,   -0.6,   0.90849, 2,    7238.32, -120.6,   0.90849, 3,    7238.32,  119.4,   0.90849
"SES_ES11_9285_BSB118", 13.8, 1,    7238.32,   -0.6,   0.90849, 2,    7238.32, -120.6,   0.90849, 3,    7238.32,  119.4,   0.90849
"SES_ES11_9287_BSB118", 13.8, 1,    7238.32,   -0.6,   0.90849, 2,    7238.31, -120.6,   0.90849, 3,    7238.32,  119.4,   0.90849
"SES_ES11_9291_BSB118", 13.8, 1,    7238.32,   -0.6,   0.90849, 2,    7238.31, -120.6,   0.90849, 3,    7238.32,  119.4,   0.90849
"SES_ES11_9282_BSB118", 13.8, 1,    7238.32,   -0.6,   0.90849, 2,    7238.31, -120.6,   0.90849, 3,    7238.32,  119.4,   0.90849
"SES_ES11_9275_BSB118", 13.8, 1,    7238.32,   -0.6,   0.90849, 2,    7238.31, -120.6,   0.90849, 3,    7238.32,  119.4,   0.90849
"SES_ES11_9278_BSB118", 13.8, 1,    7238.32,   -0.6,   0.90849, 2,    7238.31, -120.6,   0.90849, 3,    7238.32,  119.4,   0.90849
"SES_ES11_9295_BSB118", 13.8, 1,    7238.32,   -0.6,   0.90849, 2,    7238.31, -120.6,   0.90849, 3,    7238.32,  119.4,   0.90849
"SES_ES11_9297_BSB118", 13.8, 1,    7238.32,   -0.6,   0.90849, 2,    7238.31, -120.6,   0.90849, 3,    7238.32,  119.4,   0.90849
...
"SES_ES11_11311490-0407-22", 13.8, 1,    7238.32,   -0.6,   0.90849, 2,    7238.31, -120.6,   0.90849, 3,    7238.32,  119.4,   0.90849
"SES_ES11_11311490-0407-22_S", 13.8, 1,    7238.32,   -0.6,   0.90849, 2,    7238.31, -120.6,   0.90849, 3,    7238.32,  119.4,   0.90849
"SES_ES11_9293_BSB118", 13.8, 1,    7238.32,   -0.6,   0.90849, 2,    7238.31, -120.6,   0.90849, 3,    7238.32,  119.4,   0.90849
"SES_ES11_9006_BSB117", 13.8, 1,    7198.55,   -0.6,    0.9035, 2,    7198.55, -120.6,    0.9035, 3,    7198.55,  119.4,    0.9035
"SES_ES11_9008_BSB117", 13.8, 1,     7197.6,   -0.6,   0.90338, 2,     7197.6, -120.6,   0.90338, 3,     7197.6,  119.4,   0.90338
"SES_ES11_9063_BSB117", 13.8, 1,    7215.96,   -0.6,   0.90568, 2,    7215.96, -120.6,   0.90568, 3,    7215.96,  119.4,   0.90568
"SES_ES11_9044_BSB117", 13.8, 1,    7203.21,   -0.6,   0.90408, 2,    7203.21, -120.6,   0.90408, 3,    7203.21,  119.4,   0.90408
"SES_ES11_9009_BSB115", 13.8, 1,    7461.87,   -0.4,   0.93655, 2,    7461.86, -120.4,   0.93655, 3,    7461.87,  119.6,   0.93655
"SES_ES11_9010_BSB115", 13.8, 1,    7462.23,   -0.4,   0.93659, 2,    7462.23, -120.4,   0.93659, 3,    7462.23,  119.6,   0.93659
"SES_ES11_9124_BSB114", 13.8, 1,    7458.81,   -0.4,   0.93616, 2,    7458.81, -120.4,   0.93616, 3,    7458.81,  119.6,   0.93616
"SES_ES11_9126_BSB116_S", 13.8, 1,    7483.76,   -0.4,   0.93929, 2,    7483.76, -120.4,   0.93929, 3,    7483.76,  119.6,   0.93929
"SES_ES11_9127_BSB116", 13.8, 1,     7483.2,   -0.4,   0.93922, 2,    7483.19, -120.4,   0.93922, 3,     7483.2,  119.6,   0.93922
"SES_ES11_9131_BSB117", 13.8, 1,    7194.95,   -0.6,   0.90305, 2,    7194.95, -120.6,   0.90304, 3,    7194.95,  119.4,   0.90305
"SES_ES11_9131_BSB116", 13.8, 1,    7483.42,   -0.4,   0.93925, 2,    7483.42, -120.4,   0.93925, 3,    7483.42,  119.6,   0.93925
"SES_ES11_9079_BSB117", 13.8, 1,    7235.58,   -0.6,   0.90814, 2,    7235.57, -120.6,   0.90814, 3,    7235.58,  119.4,   0.90814
"SES_ES11_9114_BSB117A", 13.8, 1,    7259.36,   -0.6,   0.91113, 2,    7259.36, -120.6,   0.91113, 3,    7259.37,  119.4,   0.91113
"SES_ES11_9149_BSB117", 13.8, 1,    7262.24,   -0.6,   0.91149, 2,    7262.24, -120.6,   0.91149, 3,    7262.24,  119.4,   0.91149
"SES_ES11_9126_BSB118", 13.8, 1,    7201.99,   -0.6,   0.90393, 2,    7201.99, -120.6,   0.90393, 3,    7201.99,  119.4,   0.90393
"SES_ES11_9016_BSB115", 13.8, 1,    7462.75,   -0.4,   0.93666, 2,    7462.74, -120.4,   0.93666, 3,    7462.75,  119.6,   0.93666
"SES_ES11_9029_BSB115A", 13.8, 1,    7460.98,   -0.4,   0.93643, 2,    7460.98, -120.4,   0.93643, 3,    7460.98,  119.6,   0.93643
"SES_ES11_9030_BSB115A", 13.8, 1,    7461.01,   -0.4,   0.93644, 2,    7461.01, -120.4,   0.93644, 3,    7461.01,  119.6,   0.93644
"SES_ES11_9001_BSB114_S", 13.8, 1,       7459,   -0.4,   0.93619, 2,       7459, -120.4,   0.93619, 3,       7459,  119.6,   0.93619
"SES_ES11_9029_BSB114", 13.8, 1,    7458.72,   -0.4,   0.93615, 2,    7458.71, -120.4,   0.93615, 3,    7458.72,  119.6,   0.93615
"SES_ES11_9032_BSB117A", 13.8, 1,    7221.46,   -0.6,   0.90637, 2,    7221.46, -120.6,   0.90637, 3,    7221.46,  119.4,   0.90637
"SES_ES11_9051_BSB117A", 13.8, 1,    7208.04,   -0.6,   0.90469, 2,    7208.04, -120.6,   0.90469, 3,    7208.04,  119.4,   0.90469
"SES_ES11_9052_BSB117A", 13.8, 1,    7207.39,   -0.6,   0.90461, 2,    7207.39, -120.6,   0.90461, 3,    7207.39,  119.4,   0.90461
"SES_ES11_9228_BSBRJ001B_ATV", 13.8, 1,    7479.97,   -0.4,   0.93882, 2,    7479.97, -120.4,   0.93882, 3,    7479.97,  119.6,   0.93882
"SES_ES11_9229_BSBRJ001B_ATV", 13.8, 1,    7479.45,   -0.4,   0.93875, 2,    7479.45, -120.4,   0.93875, 3,    7479.45,  119.6,   0.93875
"SES_ES11_9238_BSBRJ001B_ATV", 13.8, 1,    7474.72,   -0.4,   0.93816, 2,    7474.71, -120.4,   0.93816, 3,    7474.72,  119.6,   0.93816
"SES_ES11_9244_BSBRJ001B_ATV", 13.8, 1,    7470.55,   -0.4,   0.93764, 2,    7470.55, -120.4,   0.93764, 3,    7470.55,  119.6,   0.93764
"SES_ES11_9125_BSB118", 13.8, 1,    7202.43,   -0.6,   0.90398, 2,    7202.43, -120.6,   0.90398, 3,    7202.43,  119.4,   0.90398
"SES_ES11_9116_BSB118", 13.8, 1,    7206.74,   -0.6,   0.90452, 2,    7206.74, -120.6,   0.90452, 3,    7206.74,  119.4,   0.90452
"SES_ES11_9118_BSB118", 13.8, 1,    7206.75,   -0.6,   0.90453, 2,    7206.75, -120.6,   0.90453, 3,    7206.76,  119.4,   0.90453
"SES_ES11_9044_BSB117A", 13.8, 1,    7215.94,   -0.6,   0.90568, 2,    7215.94, -120.6,   0.90568, 3,    7215.95,  119.4,   0.90568
"SES_ES11_9045_BSB117A", 13.8, 1,    7215.92,   -0.6,   0.90568, 2,    7215.92, -120.6,   0.90568, 3,    7215.93,  119.4,   0.90568
"SES_ES11_9043_BSB117A", 13.8, 1,    7216.14,   -0.6,    0.9057, 2,    7216.14, -120.6,    0.9057, 3,    7216.14,  119.4,    0.9057
"SES_ES11_9044_BSB117A_S", 13.8, 1,    7215.94,   -0.6,   0.90568, 2,    7215.94, -120.6,   0.90568, 3,    7215.95,  119.4,   0.90568
"SES_ES11_9049_BSB117A_S", 13.8, 1,     7209.2,   -0.6,   0.90483, 2,     7209.2, -120.6,   0.90483, 3,     7209.2,  119.4,   0.90483
"SES_ES11_9005_BSB117", 13.8, 1,    7199.06,   -0.6,   0.90356, 2,    7199.05, -120.6,   0.90356, 3,    7199.06,  119.4,   0.90356
"SES_ES11_9130_BSB118", 13.8, 1,    7204.72,   -0.6,   0.90427, 2,    7204.72, -120.6,   0.90427, 3,    7204.72,  119.4,   0.90427
"SES_ES11_9078_BSB116", 13.8, 1,    7377.17,   -0.5,   0.92591, 2,    7377.16, -120.5,   0.92591, 3,    7377.17,  119.5,   0.92592
"SES_ES11_9070_BSB115A", 13.8, 1,    7261.44,   -0.6,   0.91139, 2,    7261.43, -120.6,   0.91139, 3,    7261.44,  119.4,   0.91139
"SES_ES11_9071_BSB115A", 13.8, 1,    7265.52,   -0.6,    0.9119, 2,    7265.52, -120.6,    0.9119, 3,    7265.52,  119.4,    0.9119
"SES_ES11_9013_BSB114", 13.8, 1,    7458.93,   -0.4,   0.93618, 2,    7458.93, -120.4,   0.93618, 3,    7458.93,  119.6,   0.93618
"SES_ES11_9014_BSB114", 13.8, 1,     7458.9,   -0.4,   0.93617, 2,    7458.89, -120.4,   0.93617, 3,     7458.9,  119.6,   0.93617
"SES_ES11_9004_BSB117", 13.8, 1,    7199.56,   -0.6,   0.90362, 2,    7199.56, -120.6,   0.90362, 3,    7199.56,  119.4,   0.90362
"SES_ES11_9074_BSB116_S", 13.8, 1,     7350.9,   -0.5,   0.92262, 2,     7350.9, -120.5,   0.92262, 3,     7350.9,  119.5,   0.92262
"SES_ES11_9003_BSB114", 13.8, 1,    7459.13,   -0.4,    0.9362, 2,    7459.13, -120.4,    0.9362, 3,    7459.13,  119.6,    0.9362
"SES_ES11_9006_BSB114", 13.8, 1,     7459.2,   -0.4,   0.93621, 2,     7459.2, -120.4,   0.93621, 3,     7459.2,  119.6,   0.93621
"SES_ES11_9115_BSB116", 13.8, 1,    7469.83,   -0.4,   0.93755, 2,    7469.83, -120.4,   0.93754, 3,    7469.83,  119.6,   0.93755
"SES_ES11_9051_BSB116", 13.8, 1,    7286.01,   -0.6,   0.91447, 2,       7286, -120.6,   0.91447, 3,    7286.01,  119.4,   0.91447
"SES_ES11_9057_BSB116", 13.8, 1,    7293.42,   -0.6,    0.9154, 2,    7293.42, -120.6,    0.9154, 3,    7293.42,  119.4,    0.9154
"SES_ES11_9056_BSB117", 13.8, 1,    7216.06,   -0.6,   0.90569, 2,    7216.06, -120.6,   0.90569, 3,    7216.06,  119.4,   0.90569
"SES_ES11_9076_BSB117", 13.8, 1,    7230.41,   -0.6,    0.9075, 2,    7230.41, -120.6,    0.9075, 3,    7230.41,  119.4,    0.9075
"SES_ES11_9077_BSB117", 13.8, 1,    7230.41,   -0.6,    0.9075, 2,    7230.41, -120.6,    0.9075, 3,    7230.41,  119.4,    0.9075
"SES_ES11_9054_BSB116", 13.8, 1,    7274.15,   -0.6,   0.91299, 2,    7274.15, -120.6,   0.91299, 3,    7274.15,  119.4,   0.91299
"SES_ES11_9057_BSB115A", 13.8, 1,    7244.94,   -0.6,   0.90932, 2,    7244.94, -120.6,   0.90932, 3,    7244.95,  119.4,   0.90932
"SES_ES11_9059_BSB115A", 13.8, 1,    7246.68,   -0.6,   0.90954, 2,    7246.68, -120.6,   0.90954, 3,    7246.68,  119.4,   0.90954
"SES_ES11_9255_BSBRJ001B_ATV_S", 13.8, 1,    7242.77,   -0.6,   0.90905, 2,    7242.77, -120.6,   0.90905, 3,    7242.77,  119.4,   0.90905
"SES_ES11_9026_BSB117A", 13.8, 1,    7228.29,   -0.6,   0.90723, 2,    7228.29, -120.6,   0.90723, 3,    7228.29,  119.4,   0.90723
"SES_ES11_9027_BSB117A", 13.8, 1,    7226.56,   -0.6,   0.90701, 2,    7226.56, -120.6,   0.90701, 3,    7226.56,  119.4,   0.90701
"SES_ES11_9025_BSB117A", 13.8, 1,     7229.6,   -0.6,   0.90739, 2,     7229.6, -120.6,   0.90739, 3,     7229.6,  119.4,   0.90739
"SES_ES11_9063_BSB116", 13.8, 1,    7319.66,   -0.5,    0.9187, 2,    7319.66, -120.5,    0.9187, 3,    7319.66,  119.5,    0.9187
"SES_ES11_9061_BSB116", 13.8, 1,    7310.98,   -0.5,   0.91761, 2,    7310.98, -120.5,   0.91761, 3,    7310.98,  119.5,   0.91761
"SES_ES11_9062_BSB116", 13.8, 1,     7315.3,   -0.5,   0.91815, 2,     7315.3, -120.5,   0.91815, 3,     7315.3,  119.5,   0.91815
"SES_ES11_9059_BSB116", 13.8, 1,    7302.22,   -0.5,   0.91651, 2,    7302.22, -120.5,   0.91651, 3,    7302.22,  119.5,   0.91651
"SES_ES11_9060_BSB116", 13.8, 1,    7306.61,   -0.5,   0.91706, 2,    7306.61, -120.5,   0.91706, 3,    7306.61,  119.5,   0.91706
"SES_ES11_9058_BSB116", 13.8, 1,    7297.87,   -0.5,   0.91596, 2,    7297.87, -120.5,   0.91596, 3,    7297.87,  119.5,   0.91596
"SES_ES11_9078_BSB116_S", 13.8, 1,    7377.17,   -0.5,   0.92591, 2,    7377.16, -120.5,   0.92591, 3,    7377.17,  119.5,   0.92592
"SES_ES11_9079_BSB116", 13.8, 1,    7381.75,   -0.5,   0.92649, 2,    7381.75, -120.5,   0.92649, 3,    7381.75,  119.5,   0.92649
"SES_ES11_9082_BSB116_S", 13.8, 1,    7395.27,   -0.5,   0.92819, 2,    7395.27, -120.5,   0.92819, 3,    7395.27,  119.5,   0.92819
"SES_ES11_9129_BSB118", 13.8, 1,    7204.99,   -0.6,    0.9043, 2,    7204.99, -120.6,    0.9043, 3,    7204.99,  119.4,   0.90431
"SES_ES11_9106_BSB117A_S", 13.8, 1,    7193.38,   -0.6,   0.90285, 2,    7193.38, -120.6,   0.90285, 3,    7193.38,  119.4,   0.90285
"SES_ES11_9120_BSB118", 13.8, 1,    7204.98,   -0.6,    0.9043, 2,    7204.97, -120.6,    0.9043, 3,    7204.98,  119.4,    0.9043
"SES_ES11_9001_BSB115A", 13.8, 1,    7465.37,   -0.4,   0.93699, 2,    7465.37, -120.4,   0.93699, 3,    7465.37,  119.6,   0.93699
"SES_ES11_9027_BSB115", 13.8, 1,    7463.82,   -0.4,   0.93679, 2,    7463.82, -120.4,   0.93679, 3,    7463.82,  119.6,   0.93679
"SES_ES11_9017_BSB115", 13.8, 1,    7463.27,   -0.4,   0.93672, 2,    7463.27, -120.4,   0.93672, 3,    7463.27,  119.6,   0.93672
"SES_ES11_9012_BSB115", 13.8, 1,    7462.07,   -0.4,   0.93657, 2,    7462.07, -120.4,   0.93657, 3,    7462.07,  119.6,   0.93657
"SES_ES11_9008_BSB115", 13.8, 1,    7461.61,   -0.4,   0.93651, 2,    7461.61, -120.4,   0.93651, 3,    7461.61,  119.6,   0.93651
"SES_ES11_9007_BSB115", 13.8, 1,    7461.36,   -0.4,   0.93648, 2,    7461.35, -120.4,   0.93648, 3,    7461.36,  119.6,   0.93648
"SES_ES11_9005_BSB115", 13.8, 1,    7460.86,   -0.4,   0.93642, 2,    7460.86, -120.4,   0.93642, 3,    7460.86,  119.6,   0.93642
"SES_ES11_9006_BSB115_S", 13.8, 1,    7461.06,   -0.4,   0.93644, 2,    7461.06, -120.4,   0.93644, 3,    7461.06,  119.6,   0.93644
"SES_ES11_9033_BSB115A", 13.8, 1,    7461.05,   -0.4,   0.93644, 2,    7461.04, -120.4,   0.93644, 3,    7461.05,  119.6,   0.93644
"SES_ES11_9027_BSB115A", 13.8, 1,    7460.92,   -0.4,   0.93643, 2,    7460.91, -120.4,   0.93643, 3,    7460.92,  119.6,   0.93643
"SES_ES11_9035_BSB115A", 13.8, 1,    7460.89,   -0.4,   0.93642, 2,    7460.88, -120.4,   0.93642, 3,    7460.89,  119.6,   0.93642
"SES_ES11_9034_BSB115A", 13.8, 1,    7460.85,   -0.4,   0.93642, 2,    7460.85, -120.4,   0.93642, 3,    7460.85,  119.6,   0.93642
"SES_ES11_9002_BSB114", 13.8, 1,    7459.06,   -0.4,   0.93619, 2,    7459.06, -120.4,   0.93619, 3,    7459.06,  119.6,   0.93619
"SES_ES11_9142_BSB114", 13.8, 1,    7458.89,   -0.4,   0.93617, 2,    7458.89, -120.4,   0.93617, 3,    7458.89,  119.6,   0.93617
"SES_ES11_9013_BSB115A", 13.8, 1,    7467.96,   -0.4,   0.93731, 2,    7467.95, -120.4,   0.93731, 3,    7467.96,  119.6,   0.93731
"SES_ES11_9014_BSB115A", 13.8, 1,    7467.45,   -0.4,   0.93725, 2,    7467.44, -120.4,   0.93725, 3,    7467.45,  119.6,   0.93725
"SES_ES11_9004_BSB115A", 13.8, 1,    7466.93,   -0.4,   0.93718, 2,    7466.93, -120.4,   0.93718, 3,    7466.93,  119.6,   0.93718
"SES_ES11_9140_BSB118", 13.8, 1,    7203.18,   -0.6,   0.90408, 2,    7203.18, -120.6,   0.90408, 3,    7203.18,  119.4,   0.90408
"SES_ES11_9055_BSB117A", 13.8, 1,    7205.92,   -0.6,   0.90442, 2,    7205.91, -120.6,   0.90442, 3,    7205.92,  119.4,   0.90442
"SES_ES11_9122_BSB118", 13.8, 1,    7203.73,   -0.6,   0.90415, 2,    7203.73, -120.6,   0.90415, 3,    7203.73,  119.4,   0.90415
"SES_ES11_9250_BSBRJ001B_ATV", 13.8, 1,    7281.13,   -0.6,   0.91386, 2,    7281.13, -120.6,   0.91386, 3,    7281.13,  119.4,   0.91386
"SES_ES11_9111_BSB117A", 13.8, 1,     7250.9,   -0.6,   0.91007, 2,     7250.9, -120.6,   0.91007, 3,     7250.9,  119.4,   0.91007
"SES_ES11_9109_BSB117A", 13.8, 1,    7245.42,   -0.6,   0.90938, 2,    7245.41, -120.6,   0.90938, 3,    7245.42,  119.4,   0.90938
"SES_ES11_9110_BSB117A", 13.8, 1,    7248.17,   -0.6,   0.90972, 2,    7248.16, -120.6,   0.90972, 3,    7248.17,  119.4,   0.90972
"SES_ES11_9108_BSB117A", 13.8, 1,    7242.88,   -0.6,   0.90906, 2,    7242.88, -120.6,   0.90906, 3,    7242.88,  119.4,   0.90906
"SES_ES11_9078_BSB117", 13.8, 1,    7233.01,   -0.6,   0.90782, 2,    7233.01, -120.6,   0.90782, 3,    7233.01,  119.4,   0.90782
"SES_ES11_9073_BSB117", 13.8, 1,    7228.04,   -0.6,    0.9072, 2,    7228.04, -120.6,    0.9072, 3,    7228.04,  119.4,    0.9072
"SES_ES11_9071_BSB117", 13.8, 1,    7223.24,   -0.6,    0.9066, 2,    7223.24, -120.6,    0.9066, 3,    7223.24,  119.4,    0.9066
"SES_ES11_9072_BSB117", 13.8, 1,    7225.46,   -0.6,   0.90687, 2,    7225.46, -120.6,   0.90687, 3,    7225.47,  119.4,   0.90687
"SES_ES11_9086_BSB116_S", 13.8, 1,    7405.03,   -0.5,   0.92941, 2,    7405.03, -120.5,   0.92941, 3,    7405.03,  119.5,   0.92941
"SES_ES11_9087_BSB116", 13.8, 1,    7409.06,   -0.5,   0.92992, 2,    7409.05, -120.5,   0.92992, 3,    7409.06,  119.5,   0.92992
"SES_ES11_9091_BSB116", 13.8, 1,    7425.78,   -0.4,   0.93202, 2,    7425.77, -120.4,   0.93202, 3,    7425.78,  119.6,   0.93202
"SES_ES11_9094_BSB116_S", 13.8, 1,     7439.3,   -0.4,   0.93371, 2,     7439.3, -120.4,   0.93371, 3,     7439.3,  119.6,   0.93371
"SES_ES11_9112_BSB116", 13.8, 1,    7454.37,   -0.4,   0.93561, 2,    7454.37, -120.4,   0.93561, 3,    7454.37,  119.6,   0.93561
"SES_ES11_9096_BSB117A", 13.8, 1,    7194.54,   -0.6,   0.90299, 2,    7194.53, -120.6,   0.90299, 3,    7194.54,  119.4,   0.90299
"SES_ES11_9091_BSB117A", 13.8, 1,    7195.66,   -0.6,   0.90313, 2,    7195.66, -120.6,   0.90313, 3,    7195.66,  119.4,   0.90313
"SES_ES11_9255_BSBRJ001B_ATV", 13.8, 1,    7242.77,   -0.6,   0.90905, 2,    7242.77, -120.6,   0.90905, 3,    7242.77,  119.4,   0.90905
"SES_ES11_9256_BSBRJ001B_ATV", 13.8, 1,    7242.76,   -0.6,   0.90905, 2,    7242.76, -120.6,   0.90905, 3,    7242.76,  119.4,   0.90905
"SES_ES11_9012_BSB117A", 13.8, 1,    7238.72,   -0.6,   0.90854, 2,    7238.72, -120.6,   0.90854, 3,    7238.72,  119.4,   0.90854
"SES_ES11_9006_BSB115", 13.8, 1,    7461.06,   -0.4,   0.93644, 2,    7461.06, -120.4,   0.93644, 3,    7461.06,  119.6,   0.93644
"SES_ES11_9050_BSB117A", 13.8, 1,     7208.7,   -0.6,   0.90477, 2,    7208.69, -120.6,   0.90477, 3,     7208.7,  119.4,   0.90477
"SES_ES11_9141_BSB117", 13.8, 1,    7199.73,   -0.6,   0.90364, 2,    7199.72, -120.6,   0.90364, 3,    7199.73,  119.4,   0.90364
"SES_ES11_9061_BSB117A", 13.8, 1,    7204.19,   -0.6,    0.9042, 2,    7204.18, -120.6,    0.9042, 3,    7204.19,  119.4,    0.9042
"SES_ES11_9049_BSB117A", 13.8, 1,     7209.2,   -0.6,   0.90483, 2,     7209.2, -120.6,   0.90483, 3,     7209.2,  119.4,   0.90483
"SES_ES11_9056_BSB117A_S", 13.8, 1,    7205.52,   -0.6,   0.90437, 2,    7205.51, -120.6,   0.90437, 3,    7205.52,  119.4,   0.90437
"SES_ES11_9121_BSB118", 13.8, 1,    7204.37,   -0.6,   0.90423, 2,    7204.36, -120.6,   0.90423, 3,    7204.37,  119.4,   0.90423
"SES_ES11_9091_BSB099_S", 13.8, 1,    7577.46,   -0.3,   0.95105, 2,    7577.46, -120.3,   0.95105, 3,    7577.46,  119.7,   0.95105
"SES_ES11_9115_BSB099_S", 13.8, 1,    7580.46,   -0.3,   0.95143, 2,    7580.46, -120.3,   0.95143, 3,    7580.46,  119.7,   0.95143
"SES_ES11_9072_BSB117_S", 13.8, 1,    7225.46,   -0.6,   0.90687, 2,    7225.46, -120.6,   0.90687, 3,    7225.47,  119.4,   0.90687
"SES_ES11_9139_BSB115A", 13.8, 1,    7238.53,   -0.6,   0.90852, 2,    7238.53, -120.6,   0.90851, 3,    7238.54,  119.4,   0.90852
"SES_ES11_9129_BSB115A", 13.8, 1,    7238.38,   -0.6,    0.9085, 2,    7238.38, -120.6,    0.9085, 3,    7238.38,  119.4,    0.9085
"SES_ES11_9030_BSB117A_S", 13.8, 1,    7223.48,   -0.6,   0.90663, 2,    7223.48, -120.6,   0.90663, 3,    7223.48,  119.4,   0.90663
"SES_ES11_9028_BSB115A", 13.8, 1,    7460.95,   -0.4,   0.93643, 2,    7460.94, -120.4,   0.93643, 3,    7460.95,  119.6,   0.93643
"SES_ES11_9004_BSB115", 13.8, 1,    7460.63,   -0.4,   0.93639, 2,    7460.63, -120.4,   0.93639, 3,    7460.63,  119.6,   0.93639
"SES_ES11_9092_BSB116", 13.8, 1,    7429.87,   -0.4,   0.93253, 2,    7429.87, -120.4,   0.93253, 3,    7429.87,  119.6,   0.93253
"SES_ES11_9052_BSB116", 13.8, 1,    7283.77,   -0.6,   0.91419, 2,    7283.77, -120.6,   0.91419, 3,    7283.77,  119.4,   0.91419
"SES_ES11_9250_BSBRJ001B_ATV_S", 13.8, 1,    7281.13,   -0.6,   0.91386, 2,    7281.13, -120.6,   0.91386, 3,    7281.13,  119.4,   0.91386
"SES_ES11_9141_BSB117_S", 13.8, 1,    7199.73,   -0.6,   0.90364, 2,    7199.72, -120.6,   0.90364, 3,    7199.73,  119.4,   0.90364
"SES_ES11_9301_BSB118", 13.8, 1,    7238.32,   -0.6,   0.90849, 2,    7238.31, -120.6,   0.90849, 3,    7238.32,  119.4,   0.90849
"SES_ES11_9131_BSB115A_S", 13.8, 1,    7238.44,   -0.6,    0.9085, 2,    7238.44, -120.6,    0.9085, 3,    7238.44,  119.4,    0.9085
"SES_ES11_9238_BSBRJ001B_ATV_S", 13.8, 1,    7474.72,   -0.4,   0.93816, 2,    7474.71, -120.4,   0.93816, 3,    7474.72,  119.6,   0.93816
"SES_ES11_9239_BSBRJ001B_ATV", 13.8, 1,    7474.71,   -0.4,   0.93816, 2,     7474.7, -120.4,   0.93816, 3,    7474.71,  119.6,   0.93816
"SES_ES11_9042_BSB117_S", 13.8, 1,    7202.45,   -0.6,   0.90399, 2,    7202.44, -120.6,   0.90399, 3,    7202.45,  119.4,   0.90399
"SES_ES11_9014_BSB115", 13.8, 1,    7461.91,   -0.4,   0.93655, 2,    7461.91, -120.4,   0.93655, 3,    7461.91,  119.6,   0.93655
"SES_ES11_9060_BSB117_S", 13.8, 1,    7215.96,   -0.6,   0.90568, 2,    7215.96, -120.6,   0.90568, 3,    7215.96,  119.4,   0.90568
"SES_ES11_11261189", 13.8, 1,    7915.66,   -0.1,    0.9935, 2,    7915.66, -120.1,    0.9935, 3,    7915.66,  119.9,    0.9935
"SES_ES11_11261186", 13.8, 1,    7905.97,   -0.1,   0.99229, 2,    7905.97, -120.1,   0.99229, 3,    7905.97,  119.9,   0.99229
"SES_ES11_11261183", 13.8, 1,    7897.66,   -0.1,   0.99124, 2,    7897.66, -120.1,   0.99124, 3,    7897.66,  119.9,   0.99124
"SES_ES11_11261139", 13.8, 1,    7888.33,   -0.1,   0.99007, 2,    7888.33, -120.1,   0.99007, 3,    7888.33,  119.9,   0.99007
"SES_ES11_11261182", 13.8, 1,     7879.4,   -0.1,   0.98895, 2,     7879.4, -120.1,   0.98895, 3,     7879.4,  119.9,   0.98895
"SES_ES11_11261181", 13.8, 1,    7870.47,   -0.1,   0.98783, 2,    7870.47, -120.1,   0.98783, 3,    7870.47,  119.9,   0.98783
"SES_ES11_11261180", 13.8, 1,    7863.36,   -0.1,   0.98694, 2,    7863.36, -120.1,   0.98694, 3,    7863.36,  119.9,   0.98694
"SES_ES11_11261179", 13.8, 1,    7854.18,   -0.1,   0.98579, 2,    7854.18, -120.1,   0.98579, 3,    7854.18,  119.9,   0.98579
"SES_ES11_11251798", 13.8, 1,       7847,   -0.1,   0.98488, 2,       7847, -120.1,   0.98488, 3,       7847,  119.9,   0.98488
"SES_ES11_11251819", 13.8, 1,    7840.02,   -0.2,   0.98401, 2,    7840.02, -120.2,   0.98401, 3,    7840.02,  119.8,   0.98401
"SES_ES11_11251821", 13.8, 1,    7824.06,   -0.2,   0.98201, 2,    7824.06, -120.2,   0.98201, 3,    7824.06,  119.8,   0.98201
"SES_ES11_11251820", 13.8, 1,    7807.68,   -0.2,   0.97995, 2,    7807.68, -120.2,   0.97995, 3,    7807.68,  119.8,   0.97995
"SES_ES11_11251806", 13.8, 1,    7794.47,   -0.2,   0.97829, 2,    7794.47, -120.2,   0.97829, 3,    7794.47,  119.8,   0.97829
"SES_ES11_11251805", 13.8, 1,    7786.82,   -0.2,   0.97733, 2,    7786.82, -120.2,   0.97733, 3,    7786.82,  119.8,   0.97733
"SES_ES11_11251804", 13.8, 1,    7774.61,   -0.2,    0.9758, 2,    7774.61, -120.2,    0.9758, 3,    7774.61,  119.8,    0.9758
"SES_ES11_11251803", 13.8, 1,    7763.04,   -0.2,   0.97435, 2,    7763.04, -120.2,   0.97435, 3,    7763.04,  119.8,   0.97435
"SES_ES11_11251802", 13.8, 1,    7750.28,   -0.2,   0.97274, 2,    7750.27, -120.2,   0.97274, 3,    7750.28,  119.8,   0.97274
"SES_ES11_11251801", 13.8, 1,    7737.93,   -0.2,    0.9712, 2,    7737.93, -120.2,   0.97119, 3,    7737.93,  119.8,    0.9712
"SES_ES11_11251800", 13.8, 1,    7727.66,   -0.2,   0.96991, 2,    7727.66, -120.2,   0.96991, 3,    7727.66,  119.8,   0.96991
"SES_ES11_11251799", 13.8, 1,    7715.31,   -0.2,   0.96836, 2,    7715.31, -120.2,   0.96836, 3,    7715.31,  119.8,   0.96836
"SES_ES11_11251741", 13.8, 1,    7701.87,   -0.2,   0.96667, 2,    7701.87, -120.2,   0.96667, 3,    7701.87,  119.8,   0.96667
"SES_ES11_11251706", 13.8, 1,    7691.64,   -0.3,   0.96538, 2,    7691.64, -120.3,   0.96538, 3,    7691.64,  119.7,   0.96538
"SES_ES11_11251614", 13.8, 1,    7680.32,   -0.3,   0.96396, 2,    7680.32, -120.3,   0.96396, 3,    7680.32,  119.7,   0.96396
"SES_ES11_11251615", 13.8, 1,    7668.35,   -0.3,   0.96246, 2,    7668.35, -120.3,   0.96246, 3,    7668.35,  119.7,   0.96246
"SES_ES11_11251671", 13.8, 1,    7657.77,   -0.3,   0.96113, 2,    7657.77, -120.3,   0.96113, 3,    7657.77,  119.7,   0.96113
"SES_ES11_11251584", 13.8, 1,    7644.82,   -0.3,   0.95951, 2,    7644.82, -120.3,   0.95951, 3,    7644.82,  119.7,   0.95951
"SES_ES11_11251585", 13.8, 1,    7629.93,   -0.3,   0.95764, 2,    7629.93, -120.3,   0.95764, 3,    7629.93,  119.7,   0.95764
"SES_ES11_11251586", 13.8, 1,    7616.85,   -0.3,     0.956, 2,    7616.85, -120.3,     0.956, 3,    7616.85,  119.7,     0.956
"SES_ES11_11251587", 13.8, 1,    7602.57,   -0.3,   0.95421, 2,    7602.57, -120.3,   0.95421, 3,    7602.57,  119.7,   0.95421
"SES_ES11_11251588", 13.8, 1,    7587.63,   -0.3,   0.95233, 2,    7587.63, -120.3,   0.95233, 3,    7587.63,  119.7,   0.95233
"SES_ES11_11236918", 13.8, 1,    7587.63,   -0.3,   0.95233, 2,    7587.63, -120.3,   0.95233, 3,    7587.63,  119.7,   0.95233
"SES_ES11_11251485", 13.8, 1,    7238.49,   -0.6,   0.90851, 2,    7238.49, -120.6,   0.90851, 3,     7238.5,  119.4,   0.90851
"SES_ES11_11251486", 13.8, 1,    7238.49,   -0.6,   0.90851, 2,    7238.49, -120.6,   0.90851, 3,     7238.5,  119.4,   0.90851
"SES_ES11_11251339", 13.8, 1,    7238.49,   -0.6,   0.90851, 2,    7238.49, -120.6,   0.90851, 3,     7238.5,  119.4,   0.90851
"SES_ES11_11251481", 13.8, 1,    7238.44,   -0.6,    0.9085, 2,    7238.44, -120.6,    0.9085, 3,    7238.44,  119.4,    0.9085
"SES_ES11_11251482", 13.8, 1,    7238.44,   -0.6,    0.9085, 2,    7238.44, -120.6,    0.9085, 3,    7238.44,  119.4,    0.9085
"SES_ES11_11251337", 13.8, 1,    7238.44,   -0.6,    0.9085, 2,    7238.44, -120.6,    0.9085, 3,    7238.44,  119.4,    0.9085
"SES_ES11_11251476", 13.8, 1,    7203.18,   -0.6,   0.90408, 2,    7203.18, -120.6,   0.90408, 3,    7203.18,  119.4,   0.90408
"SES_ES11_11251477", 13.8, 1,    7203.18,   -0.6,   0.90408, 2,    7203.18, -120.6,   0.90408, 3,    7203.18,  119.4,   0.90408
"SES_ES11_11251478", 13.8, 1,    7203.18,   -0.6,   0.90408, 2,    7203.18, -120.6,   0.90408, 3,    7203.18,  119.4,   0.90408
"SES_ES11_11251479", 13.8, 1,    7203.18,   -0.6,   0.90408, 2,    7203.18, -120.6,   0.90408, 3,    7203.18,  119.4,   0.90408
"SES_ES11_11251341", 13.8, 1,    7203.18,   -0.6,   0.90408, 2,    7203.18, -120.6,   0.90408, 3,    7203.18,  119.4,   0.90408
"SES_ES11_11251408", 13.8, 1,    7577.21,   -0.3,   0.95102, 2,     7577.2, -120.3,   0.95102, 3,    7577.21,  119.7,   0.95102
"SES_ES11_11251355", 13.8, 1,    7577.21,   -0.3,   0.95102, 2,     7577.2, -120.3,   0.95102, 3,    7577.21,  119.7,   0.95102
"SES_ES11_PT_DJ_FIC03", 13.8, 1,    7950.02,   -0.1,   0.99782, 2,    7950.02, -120.1,   0.99781, 3,    7950.02,  119.9,   0.99781
"SES_ES11_11261185", 13.8, 1,    7937.04,   -0.1,   0.99619, 2,    7937.04, -120.1,   0.99619, 3,    7937.04,  119.9,   0.99619
"SES_ES11_11269457", 13.8, 1,    7464.91,   -0.4,   0.93693, 2,     7464.9, -120.4,   0.93693, 3,    7464.91,  119.6,   0.93693
"SES_ES11_11261190", 13.8, 1,     7926.6,   -0.1,   0.99488, 2,     7926.6, -120.1,   0.99488, 3,     7926.6,  119.9,   0.99488
"SES_ES11_9130_BSB117", 13.8, 1,     7194.6,   -0.6,     0.903, 2,     7194.6, -120.6,     0.903, 3,     7194.6,  119.4,     0.903
"SES_ES11_9125_BSB116_S", 13.8, 1,    7484.52,   -0.4,   0.93939, 2,    7484.52, -120.4,   0.93939, 3,    7484.52,  119.6,   0.93939
"SES_ES11_9091_BSB115A_S", 13.8, 1,    7238.44,   -0.6,    0.9085, 2,    7238.44, -120.6,    0.9085, 3,    7238.44,  119.4,    0.9085
"SES_ES11_9103_BSB117A_S", 13.8, 1,    7193.69,   -0.6,   0.90289, 2,    7193.68, -120.6,   0.90289, 3,    7193.69,  119.4,   0.90289
"SES_ES11_9149_BSB114_S", 13.8, 1,    7458.97,   -0.4,   0.93618, 2,    7458.96, -120.4,   0.93618, 3,    7458.97,  119.6,   0.93618
"SES_ES11_9158_BSB115A_S", 13.8, 1,    7238.49,   -0.6,   0.90851, 2,    7238.49, -120.6,   0.90851, 3,     7238.5,  119.4,   0.90851
"SES_ES11_9124_BSB116_S", 13.8, 1,    7484.52,   -0.4,   0.93939, 2,    7484.52, -120.4,   0.93939, 3,    7484.52,  119.6,   0.93939
"SES_ES11_9106_BSB099_S", 13.8, 1,    7577.21,   -0.3,   0.95102, 2,     7577.2, -120.3,   0.95102, 3,    7577.21,  119.7,   0.95102
"ES-BA2-13", 13.8, 2,    7958.79, -120.1,   0.99891, 3,    7958.79,  119.9,   0.99891, 8,    7958.79,   -0.1,   0.99891
"SES_ES11_9045_BSB117_S", 13.8, 1,    7204.03,   -0.6,   0.90419, 2,    7204.03, -120.6,   0.90418, 3,    7204.04,  119.4,   0.90419
"SES_ES11_9143_BSB116_S", 13.8, 1,    7531.06,   -0.4,   0.94523, 2,    7531.05, -120.4,   0.94523, 3,    7531.06,  119.6,   0.94523
"SES_ES11_9076_BSB117_S", 13.8, 1,    7230.41,   -0.6,    0.9075, 2,    7230.41, -120.6,    0.9075, 3,    7230.41,  119.4,    0.9075
"SES_ES11_9123_BSB116_S", 13.8, 1,     7485.3,   -0.4,   0.93949, 2,    7485.29, -120.4,   0.93949, 3,     7485.3,  119.6,   0.93949
"SES_ES11_9137_BSB118_S", 13.8, 1,    7203.49,   -0.6,   0.90412, 2,    7203.48, -120.6,   0.90412, 3,    7203.49,  119.4,   0.90412
"SES_ES11_9068_BSB116_S", 13.8, 1,     7341.2,   -0.5,    0.9214, 2,     7341.2, -120.5,    0.9214, 3,     7341.2,  119.5,    0.9214
"SES_ES11_9133_BSB118_S", 13.8, 1,    7204.18,   -0.6,    0.9042, 2,    7204.17, -120.6,    0.9042, 3,    7204.18,  119.4,    0.9042
"SES_ES11_9118_BSB118_S", 13.8, 1,    7206.75,   -0.6,   0.90453, 2,    7206.75, -120.6,   0.90453, 3,    7206.76,  119.4,   0.90453
"SES_ES11_9063_BSB117A_S", 13.8, 1,    7203.88,   -0.6,   0.90417, 2,    7203.88, -120.6,   0.90417, 3,    7203.88,  119.4,   0.90417
"SES_ES11_9093_BSB116_S", 13.8, 1,    7434.55,   -0.4,   0.93312, 2,    7434.55, -120.4,   0.93312, 3,    7434.55,  119.6,   0.93312
"SES_ES11_9098_BSB117A_S", 13.8, 1,    7194.01,   -0.6,   0.90293, 2,       7194, -120.6,   0.90293, 3,    7194.01,  119.4,   0.90293
"SES_ES11_9140_BSB118_S", 13.8, 1,    7203.18,   -0.6,   0.90408, 2,    7203.18, -120.6,   0.90408, 3,    7203.18,  119.4,   0.90408
"SES_ES11_9108_BSB117A_S", 13.8, 1,    7242.88,   -0.6,   0.90906, 2,    7242.88, -120.6,   0.90906, 3,    7242.88,  119.4,   0.90906
"SES_ES11_9016_BSB117A_S", 13.8, 1,    7237.12,   -0.6,   0.90834, 2,    7237.12, -120.6,   0.90834, 3,    7237.12,  119.4,   0.90834
"SES_ES11_9056_BSB116_S", 13.8, 1,    7269.34,   -0.6,   0.91238, 2,    7269.34, -120.6,   0.91238, 3,    7269.34,  119.4,   0.91238
"SES_ES11_9097_BSB099_S", 13.8, 1,    7577.11,   -0.3,   0.95101, 2,    7577.11, -120.3,   0.95101, 3,    7577.11,  119.7,   0.95101
"SES_ES11_9073_BSB117_S", 13.8, 1,    7228.04,   -0.6,    0.9072, 2,    7228.04, -120.6,    0.9072, 3,    7228.04,  119.4,    0.9072
"SES_ES11_9048_BSB117A_S", 13.8, 1,    7209.59,   -0.6,   0.90488, 2,    7209.59, -120.6,   0.90488, 3,    7209.59,  119.4,   0.90488
"SES_ES11_9072_BSB115A_S", 13.8, 1,     7267.4,   -0.6,   0.91214, 2,    7267.39, -120.6,   0.91214, 3,     7267.4,  119.4,   0.91214
"SES_ES11_9146_BSB114_S", 13.8, 1,    7458.92,   -0.4,   0.93618, 2,    7458.92, -120.4,   0.93618, 3,    7458.92,  119.6,   0.93618
"SES_ES11_9120_BSB118_S", 13.8, 1,    7204.98,   -0.6,    0.9043, 2,    7204.97, -120.6,    0.9043, 3,    7204.98,  119.4,    0.9043
"SES_ES11_9251_BSBRJ001B_ATV_S", 13.8, 1,    7269.24,   -0.6,   0.91237, 2,    7269.24, -120.6,   0.91237, 3,    7269.24,  119.4,   0.91237
"SES_ES11_9012_BSB115_S", 13.8, 1,    7462.07,   -0.4,   0.93657, 2,    7462.07, -120.4,   0.93657, 3,    7462.07,  119.6,   0.93657
"SES_ES11_9068_BSB117_S", 13.8, 1,     7217.9,   -0.6,   0.90593, 2,     7217.9, -120.6,   0.90592, 3,     7217.9,  119.4,   0.90593
"SES_ES11_9139_BSB118_S", 13.8, 1,    7203.18,   -0.6,   0.90408, 2,    7203.18, -120.6,   0.90408, 3,    7203.18,  119.4,   0.90408
"SES_ES11_9084_BSB117A_S", 13.8, 1,    7196.96,   -0.6,    0.9033, 2,    7196.96, -120.6,    0.9033, 3,    7196.96,  119.4,    0.9033
"SES_ES11_9306_BSB118_S", 13.8, 1,    7238.32,   -0.6,   0.90849, 2,    7238.31, -120.6,   0.90849, 3,    7238.32,  119.4,   0.90849
"SES_ES11_9100_BSB099_S", 13.8, 1,    7577.11,   -0.3,   0.95101, 2,    7577.11, -120.3,   0.95101, 3,    7577.11,  119.7,   0.95101
"SES_ES11_9041_BSB117_S", 13.8, 1,    7202.45,   -0.6,   0.90399, 2,    7202.44, -120.6,   0.90399, 3,    7202.45,  119.4,   0.90399
"SES_ES11_9246_BSBRJ001B_ATV_S", 13.8, 1,    7464.91,   -0.4,   0.93693, 2,     7464.9, -120.4,   0.93693, 3,    7464.91,  119.6,   0.93693
"SES_ES11_9009_BSB115_S", 13.8, 1,    7461.87,   -0.4,   0.93655, 2,    7461.86, -120.4,   0.93655, 3,    7461.87,  119.6,   0.93655
"SES_ES11_9132_BSB116_S", 13.8, 1,    7491.99,   -0.4,   0.94033, 2,    7491.99, -120.4,   0.94033, 3,    7491.99,  119.6,   0.94033
"SES_ES11_9021_BSB117A_BT_FF3296", 0.38, 1,    195.244,   -1.9,   0.88993, 2,    195.244, -121.9,   0.88993, 3,    195.244,  118.1,   0.88993
"SES_ES11_9074_BSB116_BT_FT1678", 0.38, 1,    198.359,   -1.8,   0.90413, 2,    198.359, -121.8,   0.90413, 3,    198.359,  118.2,   0.90413
"SES_ES11_9009_BSB115_BT_FT1731", 0.38, 1,    201.347,   -1.8,   0.91774, 2,    201.346, -121.8,   0.91774, 3,    201.347,  118.2,   0.91774
"SES_ES11_9084_BSB117A_BT_FM0342", 0.38, 1,    194.215,   -2.0,   0.88524, 2,    194.215, -122.0,   0.88524, 3,    194.215,  118.0,   0.88524
"SES_ES11_9041_BSB117A_BT_FP5503", 0.38, 1,     194.79,   -1.9,   0.88786, 2,     194.79, -121.9,   0.88786, 3,     194.79,  118.1,   0.88786
"SES_ES11_9042_BSB117_BT_FIC1143", 0.38, 1,    194.362,   -2.0,   0.88591, 2,    194.362, -122.0,   0.88591, 3,    194.363,  118.0,   0.88591
"SES_ES11_9072_BSB117_BT_FT6848", 0.38, 1,    194.982,   -1.9,   0.88873, 2,    194.982, -121.9,   0.88873, 3,    194.982,  118.1,   0.88873
"SES_ES11_9061_BSB117A_BT_FP8139", 0.38, 1,    194.409,   -2.0,   0.88612, 2,    194.409, -122.0,   0.88612, 3,    194.409,  118.0,   0.88612
"SES_ES11_9010_BSB117_BT_FT6778", 0.38, 1,    194.222,   -2.0,   0.88527, 2,    194.222, -122.0,   0.88527, 3,    194.222,  118.0,   0.88527
"SES_ES11_9130_BSB117_BT_FZ1928", 0.38, 1,    194.151,   -2.0,   0.88495, 2,    194.151, -122.0,   0.88495, 3,    194.151,  118.0,   0.88495
"SES_ES11_9097_BSB099_BT_FT1738", 0.38, 1,    204.449,   -1.7,   0.93188, 2,    204.449, -121.7,   0.93188, 3,    204.449,  118.3,   0.93188
"SES_ES11_9116_BSB118_BT_FIC1411", 0.38, 1,    194.478,   -2.0,   0.88644, 2,    194.478, -122.0,   0.88644, 3,    194.478,  118.0,   0.88644
"SES_ES11_9019_BSB117A_BT_FP4629", 0.38, 1,    195.244,   -1.9,   0.88993, 2,    195.244, -121.9,   0.88993, 3,    195.244,  118.1,   0.88993
"SES_ES11_9084_BSB116_BT_FP7483", 0.38, 1,    199.544,   -1.8,   0.90953, 2,    199.544, -121.8,   0.90953, 3,    199.544,  118.2,   0.90953
"SES_ES11_9117_BSB099_BT_FZ4318", 0.38, 1,    204.695,   -1.7,   0.93301, 2,    204.695, -121.7,   0.93301, 3,    204.695,  118.3,   0.93301
"SES_ES11_9043_BSB117A_BT_FF3486", 0.38, 1,    194.731,   -1.9,   0.88759, 2,    194.731, -121.9,   0.88759, 3,    194.731,  118.1,   0.88759
"SES_ES11_9045_BSB117A_BT_FZ8025", 0.38, 1,    194.725,   -1.9,   0.88756, 2,    194.725, -121.9,   0.88756, 3,    194.725,  118.1,   0.88756
"SES_ES11_9014_BSB115_BT_FP0718", 0.38, 1,    201.348,   -1.8,   0.91775, 2,    201.348, -121.8,   0.91775, 3,    201.348,  118.2,   0.91775
"SES_ES11_9137_BSB118_BT_FT7047", 0.38, 1,     194.39,   -2.0,   0.88604, 2,     194.39, -122.0,   0.88604, 3,    194.391,  118.0,   0.88604
"SES_ES11_9256_BSBRJ001B_ATV_BT_FP8333", 0.38, 1,    195.448,   -1.9,   0.89086, 2,    195.448, -121.9,   0.89086, 3,    195.448,  118.1,   0.89086
"SES_ES11_9061_BSB117_BT_FP5552", 0.38, 1,    194.722,   -1.9,   0.88755, 2,    194.722, -121.9,   0.88755, 3,    194.722,  118.1,   0.88755
"SES_ES11_9109_BSB117A_BT_FT6849", 0.38, 1,    195.519,   -1.9,   0.89118, 2,    195.519, -121.9,   0.89118, 3,    195.519,  118.1,   0.89118
"SES_ES11_9122_BSB118_BT_FM1129", 0.38, 1,    194.397,   -2.0,   0.88607, 2,    194.397, -122.0,   0.88607, 3,    194.397,  118.0,   0.88607
...